version 2
run General-0-20170104-11:32:02-10028
attr configname General
attr datetime 20170104-11:32:02
attr experiment General
attr inifile omnetpp.ini
attr iterationvars ""
attr iterationvars2 $repetition=0
attr measurement ""
attr network Omrezje1
attr processid 10028
attr repetition 0
attr replication #0
attr resultdir results
attr runnumber 0
attr seedset 0
param *.accessPoint.wlan[*].radio.transmitter.power 100mW
param *.host*.networkLayer.arpType "\"GlobalARP\""
param *.host*.numPingApps 1
param *.host*.wlan[*].radio.transmitter.power "10 mW"
param *.host1.pingApp[*].destAddr "\"host0\""
param *.host1.pingApp[*].sendInterval 5ms

vector 8  Omrezje1.accessPoint.wlan[0].mac.ctn[0]  state:vector  ETV
attr interpolationmode  none
attr source  stateChanged
attr title  "contention state, vector"
vector 28  Omrezje1.host0.wlan[0].mac.ctn[0]  state:vector  ETV
attr interpolationmode  none
attr source  stateChanged
attr title  "contention state, vector"
vector 48  Omrezje1.host1.wlan[0].mac.ctn[0]  state:vector  ETV
attr interpolationmode  none
attr source  stateChanged
attr title  "contention state, vector"
vector 4  Omrezje1.accessPoint.wlan[0].radio  radioMode:vector  ETV
attr interpolationmode  sample-hold
attr source  radioModeChanged
attr title  "Radio mode, vector"
vector 7  Omrezje1.accessPoint.wlan[0].radio  radioChannel:vector  ETV
attr interpolationmode  sample-hold
attr source  radioChannelChanged
attr title  "Radio channel, vector"
vector 24  Omrezje1.host0.wlan[0].radio  radioMode:vector  ETV
attr interpolationmode  sample-hold
attr source  radioModeChanged
attr title  "Radio mode, vector"
vector 27  Omrezje1.host0.wlan[0].radio  radioChannel:vector  ETV
attr interpolationmode  sample-hold
attr source  radioChannelChanged
attr title  "Radio channel, vector"
vector 44  Omrezje1.host1.wlan[0].radio  radioMode:vector  ETV
attr interpolationmode  sample-hold
attr source  radioModeChanged
attr title  "Radio mode, vector"
vector 47  Omrezje1.host1.wlan[0].radio  radioChannel:vector  ETV
attr interpolationmode  sample-hold
attr source  radioChannelChanged
attr title  "Radio channel, vector"
vector 5  Omrezje1.accessPoint.wlan[0].radio  receptionState:vector  ETV
attr interpolationmode  sample-hold
attr source  receptionStateChanged
attr title  "Radio reception state, vector"
vector 25  Omrezje1.host0.wlan[0].radio  receptionState:vector  ETV
attr interpolationmode  sample-hold
attr source  receptionStateChanged
attr title  "Radio reception state, vector"
vector 45  Omrezje1.host1.wlan[0].radio  receptionState:vector  ETV
attr interpolationmode  sample-hold
attr source  receptionStateChanged
attr title  "Radio reception state, vector"
vector 32  Omrezje1.host1.pingApp[0]  pingTxSeq:vector  ETV
attr interpolationmode  none
attr title  "ping tx seq, vector"
vector 2  Omrezje1.accessPoint.wlan[0].mac  rcvdPkFromHL:vector(packetBytes)  ETV
attr interpolationmode  none
attr source  packetReceivedFromUpper
attr title  "packets received from higher layer, vector(packetBytes)"
vector 1  Omrezje1.accessPoint.wlan[0].mac  sentDownPk:vector(packetBytes)  ETV
attr interpolationmode  none
attr source  packetSentToLower
attr title  "packets sent to lower layer, vector(packetBytes)"
vector 6  Omrezje1.accessPoint.wlan[0].radio  transmissionState:vector  ETV
attr interpolationmode  sample-hold
attr source  transmissionStateChanged
attr title  "Radio transmission state, vector"
vector 23  Omrezje1.host0.wlan[0].mac  rcvdPkFromLL:vector(packetBytes)  ETV
attr interpolationmode  none
attr source  packetReceivedFromLower
attr title  "packets received from lower layer, vector(packetBytes)"
vector 20  Omrezje1.host0.wlan[0].mac  passedUpPk:vector(packetBytes)  ETV
attr interpolationmode  none
attr source  packetSentToUpper
attr title  "packets passed to higher layer, vector(packetBytes)"
vector 43  Omrezje1.host1.wlan[0].mac  rcvdPkFromLL:vector(packetBytes)  ETV
attr interpolationmode  none
attr source  packetReceivedFromLower
attr title  "packets received from lower layer, vector(packetBytes)"
vector 40  Omrezje1.host1.wlan[0].mac  passedUpPk:vector(packetBytes)  ETV
attr interpolationmode  none
attr source  packetSentToUpper
attr title  "packets passed to higher layer, vector(packetBytes)"
vector 17  Omrezje1.host0.wlan[0].agent  sentRequest:vector  ETV
attr title  "sent requests, vector"
vector 37  Omrezje1.host1.wlan[0].agent  sentRequest:vector  ETV
attr title  "sent requests, vector"
vector 22  Omrezje1.host0.wlan[0].mac  rcvdPkFromHL:vector(packetBytes)  ETV
attr interpolationmode  none
attr source  packetReceivedFromUpper
attr title  "packets received from higher layer, vector(packetBytes)"
vector 21  Omrezje1.host0.wlan[0].mac  sentDownPk:vector(packetBytes)  ETV
attr interpolationmode  none
attr source  packetSentToLower
attr title  "packets sent to lower layer, vector(packetBytes)"
vector 26  Omrezje1.host0.wlan[0].radio  transmissionState:vector  ETV
attr interpolationmode  sample-hold
attr source  transmissionStateChanged
attr title  "Radio transmission state, vector"
vector 3  Omrezje1.accessPoint.wlan[0].mac  rcvdPkFromLL:vector(packetBytes)  ETV
attr interpolationmode  none
attr source  packetReceivedFromLower
attr title  "packets received from lower layer, vector(packetBytes)"
vector 0  Omrezje1.accessPoint.wlan[0].mac  passedUpPk:vector(packetBytes)  ETV
attr interpolationmode  none
attr source  packetSentToUpper
attr title  "packets passed to higher layer, vector(packetBytes)"
vector 42  Omrezje1.host1.wlan[0].mac  rcvdPkFromHL:vector(packetBytes)  ETV
attr interpolationmode  none
attr source  packetReceivedFromUpper
attr title  "packets received from higher layer, vector(packetBytes)"
vector 41  Omrezje1.host1.wlan[0].mac  sentDownPk:vector(packetBytes)  ETV
attr interpolationmode  none
attr source  packetSentToLower
attr title  "packets sent to lower layer, vector(packetBytes)"
vector 46  Omrezje1.host1.wlan[0].radio  transmissionState:vector  ETV
attr interpolationmode  sample-hold
attr source  transmissionStateChanged
attr title  "Radio transmission state, vector"
vector 18  Omrezje1.host0.wlan[0].agent  acceptConfirm:vector  ETV
attr title  "accepted confirms, vector"
vector 38  Omrezje1.host1.wlan[0].agent  acceptConfirm:vector  ETV
attr title  "accepted confirms, vector"
vector 33  Omrezje1.host1.pingApp[0]  pingRxSeq:vector  ETV
attr interpolationmode  none
attr title  "ping rx seq, vector"
vector 29  Omrezje1.host1.pingApp[0]  rtt:vector  ETV
attr interpolationmode  none
attr title  "ping round-trip time, vector"
attr unit  s
vector 30  Omrezje1.host1.pingApp[0]  numLost:vector  ETV
attr interpolationmode  none
attr title  "pings lost, vector"
0	230	0.215356852702	40
0	305	0.231318523242	40
0	621	0.515348852702	34
0	677	0.516965533172	34
0	741	0.518362213642	44
0	839	0.531310523242	34
0	895	0.53288724374	34
0	959	0.534383964238	44
0	1020	0.538275830824	120
0	1080	0.539696511294	120
0	1150	0.543275830824	120
0	1213	0.544636511294	120
0	1279	0.548275830824	120
0	1345	0.550056511294	120
0	1410	0.553275830824	120
0	1474	0.554236511294	120
1	32	0.029753460526	48
1	133	0.129753460526	48
1	237	0.215646852702	78
1	281	0.229753460526	48
1	312	0.231488523242	78
1	425	0.329753460526	48
1	524	0.429753460526	48
1	626	0.515358852702	14
1	641	0.516192852702	34
1	682	0.516975533172	14
1	697	0.517429533172	34
1	746	0.518372213642	14
1	761	0.518986213642	54
1	811	0.529753460526	48
1	844	0.531320523242	14
1	859	0.532074523242	34
1	900	0.53289724374	14
1	919	0.53357124374	34
1	964	0.534393964238	14
1	979	0.534847964238	54
1	1025	0.538285830824	14
1	1040	0.538939830824	120
1	1085	0.539706511294	14
1	1101	0.540060511294	120
1	1155	0.543285830824	14
1	1171	0.543699830824	120
1	1218	0.544646511294	14
1	1236	0.545340511294	120
1	1285	0.548285830824	14
1	1302	0.549219830824	120
1	1350	0.550066511294	14
1	1367	0.550800511294	120
1	1416	0.553285830824	14
1	1433	0.553779830824	120
1	1479	0.554246511294	14
2	30	0.029753460526	48
2	131	0.129753460526	48
2	232	0.215356852702	78
2	279	0.229753460526	48
2	307	0.231318523242	78
2	423	0.329753460526	48
2	522	0.429753460526	48
2	623	0.515348852702	34
2	679	0.516965533172	34
2	743	0.518362213642	54
2	809	0.529753460526	48
2	841	0.531310523242	34
2	897	0.53288724374	34
2	961	0.534383964238	54
2	1022	0.538275830824	120
2	1082	0.539696511294	120
2	1152	0.543275830824	120
2	1215	0.544636511294	120
2	1281	0.548275830824	120
2	1347	0.550056511294	120
2	1412	0.553275830824	120
2	1476	0.554236511294	120
3	230	0.215356852702	40
3	260	0.215999533172	14
3	305	0.231318523242	40
3	335	0.23184124374	14
3	621	0.515348852702	34
3	665	0.516541533172	14
3	677	0.516965533172	34
3	725	0.517778213642	14
3	741	0.518362213642	44
3	785	0.519338894112	14
3	839	0.531310523242	34
3	883	0.53242324374	14
3	895	0.53288724374	34
3	947	0.533919964238	14
3	959	0.534383964238	44
3	1003	0.535200684736	14
3	1020	0.538275830824	120
3	1068	0.539300511294	14
3	1080	0.539696511294	120
3	1127	0.540421231792	14
3	1150	0.543275830824	120
3	1200	0.544060511294	14
3	1213	0.544636511294	120
3	1262	0.545701231792	14
3	1279	0.548275830824	120
3	1331	0.549580511294	14
3	1345	0.550056511294	120
3	1393	0.551161231792	14
3	1410	0.553275830824	120
3	1462	0.554140511294	14
3	1474	0.554236511294	120
4	0	0	0
4	0	0	2
4	33	0.029753460526	3
4	38	0.029799460526	2
4	134	0.129753460526	3
4	139	0.129799460526	2
4	238	0.215646852702	3
4	243	0.215684852702	2
4	282	0.229753460526	3
4	287	0.229799460526	2
4	313	0.231488523242	3
4	318	0.231526523242	2
4	426	0.329753460526	3
4	431	0.329799460526	2
4	525	0.429753460526	3
4	530	0.429799460526	2
4	627	0.515358852702	3
4	634	0.515662852702	2
4	642	0.516192852702	3
4	647	0.516226852702	2
4	683	0.516975533172	3
4	690	0.517279533172	2
4	698	0.517429533172	3
4	703	0.517463533172	2
4	747	0.518372213642	3
4	754	0.518676213642	2
4	762	0.518986213642	3
4	767	0.519024213642	2
4	812	0.529753460526	3
4	817	0.529799460526	2
4	845	0.531320523242	3
4	852	0.531624523242	2
4	860	0.532074523242	3
4	865	0.532108523242	2
4	901	0.53289724374	3
4	908	0.53320124374	2
4	920	0.53357124374	3
4	925	0.53360524374	2
4	965	0.534393964238	3
4	972	0.534697964238	2
4	980	0.534847964238	3
4	985	0.534885964238	2
4	1026	0.538285830824	3
4	1033	0.538589830824	2
4	1041	0.538939830824	3
4	1046	0.538985830824	2
4	1086	0.539706511294	3
4	1094	0.540010511294	2
4	1102	0.540060511294	3
4	1107	0.540106511294	2
4	1156	0.543285830824	3
4	1163	0.543589830824	2
4	1172	0.543699830824	3
4	1177	0.543745830824	2
4	1219	0.544646511294	3
4	1228	0.544950511294	2
4	1237	0.545340511294	3
4	1242	0.545386511294	2
4	1286	0.548285830824	3
4	1293	0.548589830824	2
4	1303	0.549219830824	3
4	1308	0.549265830824	2
4	1351	0.550066511294	3
4	1359	0.550370511294	2
4	1368	0.550800511294	3
4	1373	0.550846511294	2
4	1417	0.553285830824	3
4	1424	0.553589830824	2
4	1434	0.553779830824	3
4	1439	0.553825830824	2
4	1480	0.554246511294	3
4	1487	0.554550511294	2
5	0	0	1
5	33	0.029753460526	0
5	38	0.029799460526	1
5	134	0.129753460526	0
5	139	0.129799460526	1
5	225	0.215314852702	3
5	229	0.215356852702	1
5	238	0.215646852702	0
5	243	0.215684852702	1
5	252	0.215695533172	3
5	259	0.215999533172	1
5	282	0.229753460526	0
5	287	0.229799460526	1
5	300	0.231276523242	3
5	304	0.231318523242	1
5	313	0.231488523242	0
5	318	0.231526523242	1
5	327	0.23153724374	3
5	334	0.23184124374	1
5	426	0.329753460526	0
5	431	0.329799460526	1
5	525	0.429753460526	0
5	530	0.429799460526	1
5	616	0.515314852702	3
5	620	0.515348852702	1
5	627	0.515358852702	0
5	634	0.515662852702	1
5	642	0.516192852702	0
5	647	0.516226852702	1
5	657	0.516237533172	3
5	664	0.516541533172	1
5	672	0.516931533172	3
5	676	0.516965533172	1
5	683	0.516975533172	0
5	690	0.517279533172	1
5	698	0.517429533172	0
5	703	0.517463533172	1
5	717	0.517474213642	3
5	724	0.517778213642	1
5	736	0.518328213642	3
5	740	0.518362213642	1
5	747	0.518372213642	0
5	754	0.518676213642	1
5	762	0.518986213642	0
5	767	0.519024213642	1
5	777	0.519034894112	3
5	784	0.519338894112	1
5	812	0.529753460526	0
5	817	0.529799460526	1
5	834	0.531276523242	3
5	838	0.531310523242	1
5	845	0.531320523242	0
5	852	0.531624523242	1
5	860	0.532074523242	0
5	865	0.532108523242	1
5	875	0.53211924374	3
5	882	0.53242324374	1
5	890	0.53285324374	3
5	894	0.53288724374	1
5	901	0.53289724374	0
5	908	0.53320124374	1
5	920	0.53357124374	0
5	925	0.53360524374	1
5	939	0.533615964238	3
5	946	0.533919964238	1
5	954	0.534349964238	3
5	958	0.534383964238	1
5	965	0.534393964238	0
5	972	0.534697964238	1
5	980	0.534847964238	0
5	985	0.534885964238	1
5	995	0.534896684736	3
5	1002	0.535200684736	1
5	1015	0.538229830824	3
5	1019	0.538275830824	1
5	1026	0.538285830824	0
5	1033	0.538589830824	1
5	1041	0.538939830824	0
5	1046	0.538985830824	1
5	1060	0.538996511294	3
5	1067	0.539300511294	1
5	1075	0.539650511294	3
5	1079	0.539696511294	1
5	1086	0.539706511294	0
5	1094	0.540010511294	1
5	1102	0.540060511294	0
5	1107	0.540106511294	1
5	1119	0.540117231792	3
5	1126	0.540421231792	1
5	1145	0.543229830824	3
5	1149	0.543275830824	1
5	1156	0.543285830824	0
5	1163	0.543589830824	1
5	1172	0.543699830824	0
5	1177	0.543745830824	1
5	1191	0.543756511294	3
5	1199	0.544060511294	1
5	1208	0.544590511294	3
5	1212	0.544636511294	1
5	1219	0.544646511294	0
5	1228	0.544950511294	1
5	1237	0.545340511294	0
5	1242	0.545386511294	1
5	1254	0.545397231792	3
5	1261	0.545701231792	1
5	1274	0.548229830824	3
5	1278	0.548275830824	1
5	1286	0.548285830824	0
5	1293	0.548589830824	1
5	1303	0.549219830824	0
5	1308	0.549265830824	1
5	1322	0.549276511294	3
5	1330	0.549580511294	1
5	1339	0.550010511294	3
5	1344	0.550056511294	1
5	1351	0.550066511294	0
5	1359	0.550370511294	1
5	1368	0.550800511294	0
5	1373	0.550846511294	1
5	1385	0.550857231792	3
5	1392	0.551161231792	1
5	1405	0.553229830824	3
5	1409	0.553275830824	1
5	1417	0.553285830824	0
5	1424	0.553589830824	1
5	1434	0.553779830824	0
5	1439	0.553825830824	1
5	1453	0.553836511294	3
5	1461	0.554140511294	1
5	1469	0.554190511294	3
5	1473	0.554236511294	1
5	1480	0.554246511294	0
5	1487	0.554550511294	1
6	33	0.029753460526	1
6	34	0.029753460526	2
6	37	0.029799460526	1
6	38	0.029799460526	0
6	134	0.129753460526	1
6	135	0.129753460526	2
6	138	0.129799460526	1
6	139	0.129799460526	0
6	238	0.215646852702	1
6	239	0.215646852702	2
6	242	0.215684852702	1
6	243	0.215684852702	0
6	282	0.229753460526	1
6	283	0.229753460526	2
6	286	0.229799460526	1
6	287	0.229799460526	0
6	313	0.231488523242	1
6	314	0.231488523242	2
6	317	0.231526523242	1
6	318	0.231526523242	0
6	426	0.329753460526	1
6	427	0.329753460526	2
6	430	0.329799460526	1
6	431	0.329799460526	0
6	525	0.429753460526	1
6	526	0.429753460526	2
6	529	0.429799460526	1
6	530	0.429799460526	0
6	627	0.515358852702	1
6	628	0.515358852702	2
6	633	0.515662852702	1
6	634	0.515662852702	0
6	642	0.516192852702	1
6	643	0.516192852702	2
6	646	0.516226852702	1
6	647	0.516226852702	0
6	683	0.516975533172	1
6	684	0.516975533172	2
6	689	0.517279533172	1
6	690	0.517279533172	0
6	698	0.517429533172	1
6	699	0.517429533172	2
6	702	0.517463533172	1
6	703	0.517463533172	0
6	747	0.518372213642	1
6	748	0.518372213642	2
6	753	0.518676213642	1
6	754	0.518676213642	0
6	762	0.518986213642	1
6	763	0.518986213642	2
6	766	0.519024213642	1
6	767	0.519024213642	0
6	812	0.529753460526	1
6	813	0.529753460526	2
6	816	0.529799460526	1
6	817	0.529799460526	0
6	845	0.531320523242	1
6	846	0.531320523242	2
6	851	0.531624523242	1
6	852	0.531624523242	0
6	860	0.532074523242	1
6	861	0.532074523242	2
6	864	0.532108523242	1
6	865	0.532108523242	0
6	901	0.53289724374	1
6	902	0.53289724374	2
6	907	0.53320124374	1
6	908	0.53320124374	0
6	920	0.53357124374	1
6	921	0.53357124374	2
6	924	0.53360524374	1
6	925	0.53360524374	0
6	965	0.534393964238	1
6	966	0.534393964238	2
6	971	0.534697964238	1
6	972	0.534697964238	0
6	980	0.534847964238	1
6	981	0.534847964238	2
6	984	0.534885964238	1
6	985	0.534885964238	0
6	1026	0.538285830824	1
6	1027	0.538285830824	2
6	1032	0.538589830824	1
6	1033	0.538589830824	0
6	1041	0.538939830824	1
6	1042	0.538939830824	2
6	1045	0.538985830824	1
6	1046	0.538985830824	0
6	1086	0.539706511294	1
6	1087	0.539706511294	2
6	1093	0.540010511294	1
6	1094	0.540010511294	0
6	1102	0.540060511294	1
6	1103	0.540060511294	2
6	1106	0.540106511294	1
6	1107	0.540106511294	0
6	1156	0.543285830824	1
6	1157	0.543285830824	2
6	1162	0.543589830824	1
6	1163	0.543589830824	0
6	1172	0.543699830824	1
6	1173	0.543699830824	2
6	1176	0.543745830824	1
6	1177	0.543745830824	0
6	1219	0.544646511294	1
6	1220	0.544646511294	2
6	1227	0.544950511294	1
6	1228	0.544950511294	0
6	1237	0.545340511294	1
6	1238	0.545340511294	2
6	1241	0.545386511294	1
6	1242	0.545386511294	0
6	1286	0.548285830824	1
6	1287	0.548285830824	2
6	1292	0.548589830824	1
6	1293	0.548589830824	0
6	1303	0.549219830824	1
6	1304	0.549219830824	2
6	1307	0.549265830824	1
6	1308	0.549265830824	0
6	1351	0.550066511294	1
6	1352	0.550066511294	2
6	1358	0.550370511294	1
6	1359	0.550370511294	0
6	1368	0.550800511294	1
6	1369	0.550800511294	2
6	1372	0.550846511294	1
6	1373	0.550846511294	0
6	1417	0.553285830824	1
6	1418	0.553285830824	2
6	1423	0.553589830824	1
6	1424	0.553589830824	0
6	1434	0.553779830824	1
6	1435	0.553779830824	2
6	1438	0.553825830824	1
6	1439	0.553825830824	0
6	1480	0.554246511294	1
6	1481	0.554246511294	2
6	1486	0.554550511294	1
6	1487	0.554550511294	0
7	0	0	0
8	0	0	0
8	0	0	0
8	0	0	0
8	0	0	0
8	30	0.029753460526	0
8	30	0.029753460526	2
8	31	0.029753460526	2
8	31	0.029753460526	3
8	33	0.029753460526	3
8	33	0.029753460526	3
8	37	0.029799460526	3
8	37	0.029799460526	0
8	38	0.029799460526	0
8	38	0.029799460526	0
8	131	0.129753460526	0
8	131	0.129753460526	2
8	132	0.129753460526	2
8	132	0.129753460526	3
8	134	0.129753460526	3
8	134	0.129753460526	3
8	138	0.129799460526	3
8	138	0.129799460526	0
8	139	0.129799460526	0
8	139	0.129799460526	0
8	225	0.215314852702	0
8	225	0.215314852702	0
8	229	0.215356852702	0
8	229	0.215356852702	0
8	232	0.215356852702	0
8	232	0.215356852702	2
8	236	0.215646852702	2
8	236	0.215646852702	3
8	238	0.215646852702	3
8	238	0.215646852702	3
8	259	0.215999533172	3
8	259	0.215999533172	3
8	260	0.215999533172	3
8	260	0.215999533172	0
8	279	0.229753460526	0
8	279	0.229753460526	2
8	280	0.229753460526	2
8	280	0.229753460526	3
8	282	0.229753460526	3
8	282	0.229753460526	3
8	286	0.229799460526	3
8	286	0.229799460526	0
8	287	0.229799460526	0
8	287	0.229799460526	0
8	300	0.231276523242	0
8	300	0.231276523242	0
8	304	0.231318523242	0
8	304	0.231318523242	0
8	307	0.231318523242	0
8	307	0.231318523242	2
8	311	0.231488523242	2
8	311	0.231488523242	3
8	313	0.231488523242	3
8	313	0.231488523242	3
8	334	0.23184124374	3
8	334	0.23184124374	3
8	335	0.23184124374	3
8	335	0.23184124374	0
8	423	0.329753460526	0
8	423	0.329753460526	2
8	424	0.329753460526	2
8	424	0.329753460526	3
8	426	0.329753460526	3
8	426	0.329753460526	3
8	430	0.329799460526	3
8	430	0.329799460526	0
8	431	0.329799460526	0
8	431	0.329799460526	0
8	522	0.429753460526	0
8	522	0.429753460526	2
8	523	0.429753460526	2
8	523	0.429753460526	3
8	525	0.429753460526	3
8	525	0.429753460526	3
8	529	0.429799460526	3
8	529	0.429799460526	0
8	530	0.429799460526	0
8	530	0.429799460526	0
8	616	0.515314852702	0
8	616	0.515314852702	0
8	620	0.515348852702	0
8	620	0.515348852702	0
8	623	0.515348852702	0
8	623	0.515348852702	2
8	627	0.515358852702	2
8	627	0.515358852702	1
8	634	0.515662852702	1
8	634	0.515662852702	2
8	640	0.516192852702	2
8	640	0.516192852702	3
8	642	0.516192852702	3
8	642	0.516192852702	3
8	664	0.516541533172	3
8	664	0.516541533172	3
8	665	0.516541533172	3
8	665	0.516541533172	0
8	672	0.516931533172	0
8	672	0.516931533172	0
8	676	0.516965533172	0
8	676	0.516965533172	0
8	679	0.516965533172	0
8	679	0.516965533172	2
8	683	0.516975533172	2
8	683	0.516975533172	1
8	690	0.517279533172	1
8	690	0.517279533172	2
8	696	0.517429533172	2
8	696	0.517429533172	3
8	698	0.517429533172	3
8	698	0.517429533172	3
8	724	0.517778213642	3
8	724	0.517778213642	3
8	725	0.517778213642	3
8	725	0.517778213642	0
8	736	0.518328213642	0
8	736	0.518328213642	0
8	740	0.518362213642	0
8	740	0.518362213642	0
8	743	0.518362213642	0
8	743	0.518362213642	2
8	747	0.518372213642	2
8	747	0.518372213642	1
8	754	0.518676213642	1
8	754	0.518676213642	2
8	760	0.518986213642	2
8	760	0.518986213642	3
8	762	0.518986213642	3
8	762	0.518986213642	3
8	784	0.519338894112	3
8	784	0.519338894112	3
8	785	0.519338894112	3
8	785	0.519338894112	0
8	809	0.529753460526	0
8	809	0.529753460526	2
8	810	0.529753460526	2
8	810	0.529753460526	3
8	812	0.529753460526	3
8	812	0.529753460526	3
8	816	0.529799460526	3
8	816	0.529799460526	0
8	817	0.529799460526	0
8	817	0.529799460526	0
8	834	0.531276523242	0
8	834	0.531276523242	0
8	838	0.531310523242	0
8	838	0.531310523242	0
8	841	0.531310523242	0
8	841	0.531310523242	2
8	845	0.531320523242	2
8	845	0.531320523242	1
8	852	0.531624523242	1
8	852	0.531624523242	2
8	858	0.532074523242	2
8	858	0.532074523242	3
8	860	0.532074523242	3
8	860	0.532074523242	3
8	882	0.53242324374	3
8	882	0.53242324374	3
8	883	0.53242324374	3
8	883	0.53242324374	0
8	890	0.53285324374	0
8	890	0.53285324374	0
8	894	0.53288724374	0
8	894	0.53288724374	0
8	897	0.53288724374	0
8	897	0.53288724374	2
8	901	0.53289724374	2
8	901	0.53289724374	1
8	908	0.53320124374	1
8	908	0.53320124374	2
8	918	0.53357124374	2
8	918	0.53357124374	3
8	920	0.53357124374	3
8	920	0.53357124374	3
8	946	0.533919964238	3
8	946	0.533919964238	3
8	947	0.533919964238	3
8	947	0.533919964238	0
8	954	0.534349964238	0
8	954	0.534349964238	0
8	958	0.534383964238	0
8	958	0.534383964238	0
8	961	0.534383964238	0
8	961	0.534383964238	2
8	965	0.534393964238	2
8	965	0.534393964238	1
8	972	0.534697964238	1
8	972	0.534697964238	2
8	978	0.534847964238	2
8	978	0.534847964238	3
8	980	0.534847964238	3
8	980	0.534847964238	3
8	1002	0.535200684736	3
8	1002	0.535200684736	3
8	1003	0.535200684736	3
8	1003	0.535200684736	0
8	1015	0.538229830824	0
8	1015	0.538229830824	0
8	1019	0.538275830824	0
8	1019	0.538275830824	0
8	1022	0.538275830824	0
8	1022	0.538275830824	2
8	1026	0.538285830824	2
8	1026	0.538285830824	1
8	1033	0.538589830824	1
8	1033	0.538589830824	2
8	1039	0.538939830824	2
8	1039	0.538939830824	3
8	1041	0.538939830824	3
8	1041	0.538939830824	3
8	1067	0.539300511294	3
8	1067	0.539300511294	3
8	1068	0.539300511294	3
8	1068	0.539300511294	0
8	1075	0.539650511294	0
8	1075	0.539650511294	0
8	1079	0.539696511294	0
8	1079	0.539696511294	0
8	1082	0.539696511294	0
8	1082	0.539696511294	2
8	1086	0.539706511294	2
8	1086	0.539706511294	1
8	1094	0.540010511294	1
8	1094	0.540010511294	2
8	1100	0.540060511294	2
8	1100	0.540060511294	3
8	1102	0.540060511294	3
8	1102	0.540060511294	3
8	1126	0.540421231792	3
8	1126	0.540421231792	3
8	1127	0.540421231792	3
8	1127	0.540421231792	0
8	1145	0.543229830824	0
8	1145	0.543229830824	0
8	1149	0.543275830824	0
8	1149	0.543275830824	0
8	1152	0.543275830824	0
8	1152	0.543275830824	2
8	1156	0.543285830824	2
8	1156	0.543285830824	1
8	1163	0.543589830824	1
8	1163	0.543589830824	2
8	1170	0.543699830824	2
8	1170	0.543699830824	3
8	1172	0.543699830824	3
8	1172	0.543699830824	3
8	1199	0.544060511294	3
8	1199	0.544060511294	3
8	1200	0.544060511294	3
8	1200	0.544060511294	0
8	1208	0.544590511294	0
8	1208	0.544590511294	0
8	1212	0.544636511294	0
8	1212	0.544636511294	0
8	1215	0.544636511294	0
8	1215	0.544636511294	2
8	1219	0.544646511294	2
8	1219	0.544646511294	1
8	1228	0.544950511294	1
8	1228	0.544950511294	2
8	1235	0.545340511294	2
8	1235	0.545340511294	3
8	1237	0.545340511294	3
8	1237	0.545340511294	3
8	1261	0.545701231792	3
8	1261	0.545701231792	3
8	1262	0.545701231792	3
8	1262	0.545701231792	0
8	1274	0.548229830824	0
8	1274	0.548229830824	0
8	1278	0.548275830824	0
8	1278	0.548275830824	0
8	1281	0.548275830824	0
8	1281	0.548275830824	2
8	1286	0.548285830824	2
8	1286	0.548285830824	1
8	1293	0.548589830824	1
8	1293	0.548589830824	2
8	1301	0.549219830824	2
8	1301	0.549219830824	3
8	1303	0.549219830824	3
8	1303	0.549219830824	3
8	1330	0.549580511294	3
8	1330	0.549580511294	3
8	1331	0.549580511294	3
8	1331	0.549580511294	0
8	1339	0.550010511294	0
8	1339	0.550010511294	0
8	1344	0.550056511294	0
8	1344	0.550056511294	0
8	1347	0.550056511294	0
8	1347	0.550056511294	2
8	1351	0.550066511294	2
8	1351	0.550066511294	1
8	1359	0.550370511294	1
8	1359	0.550370511294	2
8	1366	0.550800511294	2
8	1366	0.550800511294	3
8	1368	0.550800511294	3
8	1368	0.550800511294	3
8	1392	0.551161231792	3
8	1392	0.551161231792	3
8	1393	0.551161231792	3
8	1393	0.551161231792	0
8	1405	0.553229830824	0
8	1405	0.553229830824	0
8	1409	0.553275830824	0
8	1409	0.553275830824	0
8	1412	0.553275830824	0
8	1412	0.553275830824	2
8	1417	0.553285830824	2
8	1417	0.553285830824	1
8	1424	0.553589830824	1
8	1424	0.553589830824	2
8	1432	0.553779830824	2
8	1432	0.553779830824	3
8	1434	0.553779830824	3
8	1434	0.553779830824	3
8	1461	0.554140511294	3
8	1461	0.554140511294	3
8	1462	0.554140511294	3
8	1462	0.554140511294	0
8	1469	0.554190511294	0
8	1469	0.554190511294	0
8	1473	0.554236511294	0
8	1473	0.554236511294	0
8	1476	0.554236511294	0
8	1476	0.554236511294	2
8	1480	0.554246511294	2
8	1480	0.554246511294	1
8	1487	0.554550511294	1
8	1487	0.554550511294	2
17	114	0.115314512467	1
17	607	0.515314512467	2
17	707	0.517463873407	4
18	607	0.515314512467	1
18	707	0.517463873407	2
18	771	0.519024553877	4
20	40	0.029799800761	48
20	141	0.129799800761	48
20	245	0.215685192937	78
20	289	0.229799800761	48
20	309	0.231318863478	40
20	433	0.329799800761	48
20	532	0.429799800761	48
20	649	0.516227192937	34
20	705	0.517463873407	34
20	769	0.519024553877	54
20	819	0.529799800761	48
20	1048	0.538986171059	120
20	1179	0.543746171059	120
20	1310	0.549266171059	120
20	1441	0.553826171059	120
21	222	0.215314512467	40
21	249	0.215695192937	14
21	613	0.515314512467	34
21	654	0.516237192937	14
21	669	0.516931192937	34
21	714	0.517473873407	14
21	733	0.518327873407	44
21	774	0.519034553877	14
21	1057	0.538996171059	14
21	1072	0.539650171059	120
21	1188	0.543756171059	14
21	1205	0.544590171059	120
21	1319	0.549276171059	14
21	1336	0.550010171059	120
21	1450	0.553836171059	14
21	1466	0.554190171059	120
22	220	0.215314512467	40
22	610	0.515314512467	34
22	651	0.516227192937	34
22	710	0.517463873407	44
22	1054	0.538986171059	120
22	1185	0.543746171059	120
22	1316	0.549266171059	120
22	1447	0.553826171059	120
23	40	0.029799800761	48
23	141	0.129799800761	48
23	245	0.215685192937	78
23	289	0.229799800761	48
23	309	0.231318863478	40
23	320	0.231526863477	78
23	337	0.231841583976	14
23	433	0.329799800761	48
23	532	0.429799800761	48
23	636	0.515663192937	14
23	649	0.516227192937	34
23	692	0.517279873407	14
23	705	0.517463873407	34
23	756	0.518676553877	14
23	769	0.519024553877	54
23	819	0.529799800761	48
23	843	0.531310863478	34
23	854	0.531624863477	14
23	867	0.532108863477	34
23	885	0.532423583976	14
23	899	0.532887583976	34
23	910	0.533201583975	14
23	927	0.533605583975	34
23	949	0.533920304474	14
23	963	0.534384304474	44
23	974	0.534698304473	14
23	987	0.534886304473	54
23	1005	0.535201024972	14
23	1024	0.53827617106	120
23	1035	0.538590171059	14
23	1048	0.538986171059	120
23	1096	0.540010851529	14
23	1109	0.540106851529	120
23	1129	0.540421572028	14
23	1154	0.54327617106	120
23	1165	0.543590171059	14
23	1179	0.543746171059	120
23	1230	0.544950851529	14
23	1244	0.545386851529	120
23	1264	0.545701572028	14
23	1284	0.54827617106	120
23	1295	0.548590171059	14
23	1310	0.549266171059	120
23	1361	0.550370851529	14
23	1375	0.550846851529	120
23	1395	0.551161572028	14
23	1415	0.55327617106	120
23	1426	0.553590171059	14
23	1441	0.553826171059	120
23	1489	0.554550851529	14
24	0	0	0
24	0	0	2
24	223	0.215314512467	3
24	228	0.215356512467	2
24	250	0.215695192937	3
24	257	0.215999192937	2
24	614	0.515314512467	3
24	619	0.515348512467	2
24	655	0.516237192937	3
24	662	0.516541192937	2
24	670	0.516931192937	3
24	675	0.516965192937	2
24	715	0.517473873407	3
24	722	0.517777873407	2
24	734	0.518327873407	3
24	739	0.518361873407	2
24	775	0.519034553877	3
24	782	0.519338553877	2
24	1058	0.538996171059	3
24	1065	0.539300171059	2
24	1073	0.539650171059	3
24	1078	0.539696171059	2
24	1189	0.543756171059	3
24	1197	0.544060171059	2
24	1206	0.544590171059	3
24	1211	0.544636171059	2
24	1320	0.549276171059	3
24	1328	0.549580171059	2
24	1337	0.550010171059	3
24	1343	0.550056171059	2
24	1451	0.553836171059	3
24	1459	0.554140171059	2
24	1467	0.554190171059	3
24	1472	0.554236171059	2
25	0	0	1
25	35	0.029753800761	3
25	39	0.029799800761	1
25	136	0.129753800761	3
25	140	0.129799800761	1
25	223	0.215314512467	0
25	228	0.215356512467	1
25	240	0.215647192937	3
25	244	0.215685192937	1
25	250	0.215695192937	0
25	257	0.215999192937	1
25	284	0.229753800761	3
25	288	0.229799800761	1
25	301	0.231276863478	3
25	308	0.231318863478	1
25	315	0.231488863477	3
25	319	0.231526863477	1
25	328	0.231537583976	3
25	336	0.231841583976	1
25	428	0.329753800761	3
25	432	0.329799800761	1
25	527	0.429753800761	3
25	531	0.429799800761	1
25	614	0.515314512467	0
25	619	0.515348512467	1
25	629	0.515359192937	3
25	635	0.515663192937	1
25	644	0.516193192937	3
25	648	0.516227192937	1
25	655	0.516237192937	0
25	662	0.516541192937	1
25	670	0.516931192937	0
25	675	0.516965192937	1
25	685	0.516975873407	3
25	691	0.517279873407	1
25	700	0.517429873407	3
25	704	0.517463873407	1
25	715	0.517473873407	0
25	722	0.517777873407	1
25	734	0.518327873407	0
25	739	0.518361873407	1
25	749	0.518372553877	3
25	755	0.518676553877	1
25	764	0.518986553877	3
25	768	0.519024553877	1
25	775	0.519034553877	0
25	782	0.519338553877	1
25	814	0.529753800761	3
25	818	0.529799800761	1
25	835	0.531276863478	3
25	842	0.531310863478	1
25	847	0.531320863477	3
25	853	0.531624863477	1
25	862	0.532074863477	3
25	866	0.532108863477	1
25	876	0.532119583976	3
25	884	0.532423583976	1
25	891	0.532853583976	3
25	898	0.532887583976	1
25	903	0.532897583975	3
25	909	0.533201583975	1
25	922	0.533571583975	3
25	926	0.533605583975	1
25	940	0.533616304474	3
25	948	0.533920304474	1
25	955	0.534350304474	3
25	962	0.534384304474	1
25	967	0.534394304473	3
25	973	0.534698304473	1
25	982	0.534848304473	3
25	986	0.534886304473	1
25	996	0.534897024972	3
25	1004	0.535201024972	1
25	1016	0.53823017106	3
25	1023	0.53827617106	1
25	1028	0.538286171059	3
25	1034	0.538590171059	1
25	1043	0.538940171059	3
25	1047	0.538986171059	1
25	1058	0.538996171059	0
25	1065	0.539300171059	1
25	1073	0.539650171059	0
25	1078	0.539696171059	1
25	1088	0.539706851529	3
25	1095	0.540010851529	1
25	1104	0.540060851529	3
25	1108	0.540106851529	1
25	1120	0.540117572028	3
25	1128	0.540421572028	1
25	1146	0.54323017106	3
25	1153	0.54327617106	1
25	1158	0.543286171059	3
25	1164	0.543590171059	1
25	1174	0.543700171059	3
25	1178	0.543746171059	1
25	1189	0.543756171059	0
25	1197	0.544060171059	1
25	1206	0.544590171059	0
25	1211	0.544636171059	1
25	1221	0.544646851529	3
25	1229	0.544950851529	1
25	1239	0.545340851529	3
25	1243	0.545386851529	1
25	1255	0.545397572028	3
25	1263	0.545701572028	1
25	1275	0.54823017106	3
25	1283	0.54827617106	1
25	1288	0.548286171059	3
25	1294	0.548590171059	1
25	1305	0.549220171059	3
25	1309	0.549266171059	1
25	1320	0.549276171059	0
25	1328	0.549580171059	1
25	1337	0.550010171059	0
25	1343	0.550056171059	1
25	1353	0.550066851529	3
25	1360	0.550370851529	1
25	1370	0.550800851529	3
25	1374	0.550846851529	1
25	1386	0.550857572028	3
25	1394	0.551161572028	1
25	1406	0.55323017106	3
25	1414	0.55327617106	1
25	1419	0.553286171059	3
25	1425	0.553590171059	1
25	1436	0.553780171059	3
25	1440	0.553826171059	1
25	1451	0.553836171059	0
25	1459	0.554140171059	1
25	1467	0.554190171059	0
25	1472	0.554236171059	1
25	1482	0.554246851529	3
25	1488	0.554550851529	1
26	223	0.215314512467	1
26	224	0.215314512467	2
26	227	0.215356512467	1
26	228	0.215356512467	0
26	250	0.215695192937	1
26	251	0.215695192937	2
26	256	0.215999192937	1
26	257	0.215999192937	0
26	614	0.515314512467	1
26	615	0.515314512467	2
26	618	0.515348512467	1
26	619	0.515348512467	0
26	655	0.516237192937	1
26	656	0.516237192937	2
26	661	0.516541192937	1
26	662	0.516541192937	0
26	670	0.516931192937	1
26	671	0.516931192937	2
26	674	0.516965192937	1
26	675	0.516965192937	0
26	715	0.517473873407	1
26	716	0.517473873407	2
26	721	0.517777873407	1
26	722	0.517777873407	0
26	734	0.518327873407	1
26	735	0.518327873407	2
26	738	0.518361873407	1
26	739	0.518361873407	0
26	775	0.519034553877	1
26	776	0.519034553877	2
26	781	0.519338553877	1
26	782	0.519338553877	0
26	1058	0.538996171059	1
26	1059	0.538996171059	2
26	1064	0.539300171059	1
26	1065	0.539300171059	0
26	1073	0.539650171059	1
26	1074	0.539650171059	2
26	1077	0.539696171059	1
26	1078	0.539696171059	0
26	1189	0.543756171059	1
26	1190	0.543756171059	2
26	1196	0.544060171059	1
26	1197	0.544060171059	0
26	1206	0.544590171059	1
26	1207	0.544590171059	2
26	1210	0.544636171059	1
26	1211	0.544636171059	0
26	1320	0.549276171059	1
26	1321	0.549276171059	2
26	1327	0.549580171059	1
26	1328	0.549580171059	0
26	1337	0.550010171059	1
26	1338	0.550010171059	2
26	1342	0.550056171059	1
26	1343	0.550056171059	0
26	1451	0.553836171059	1
26	1452	0.553836171059	2
26	1458	0.554140171059	1
26	1459	0.554140171059	0
26	1467	0.554190171059	1
26	1468	0.554190171059	2
26	1471	0.554236171059	1
26	1472	0.554236171059	0
27	0	0	0
27	117	0.115314512467	0
27	611	0.515314512467	0
27	711	0.517463873407	0
28	0	0	0
28	0	0	0
28	0	0	0
28	0	0	0
28	35	0.029753800761	0
28	35	0.029753800761	0
28	39	0.029799800761	0
28	39	0.029799800761	0
28	136	0.129753800761	0
28	136	0.129753800761	0
28	140	0.129799800761	0
28	140	0.129799800761	0
28	220	0.215314512467	0
28	220	0.215314512467	2
28	221	0.215314512467	2
28	221	0.215314512467	3
28	223	0.215314512467	3
28	223	0.215314512467	3
28	227	0.215356512467	3
28	227	0.215356512467	0
28	228	0.215356512467	0
28	228	0.215356512467	0
28	240	0.215647192937	0
28	240	0.215647192937	0
28	244	0.215685192937	0
28	244	0.215685192937	0
28	250	0.215695192937	0
28	250	0.215695192937	0
28	257	0.215999192937	0
28	257	0.215999192937	0
28	284	0.229753800761	0
28	284	0.229753800761	0
28	288	0.229799800761	0
28	288	0.229799800761	0
28	301	0.231276863478	0
28	301	0.231276863478	0
28	308	0.231318863478	0
28	308	0.231318863478	0
28	315	0.231488863477	0
28	315	0.231488863477	0
28	319	0.231526863477	0
28	319	0.231526863477	0
28	320	0.231526863477	0
28	320	0.231526863477	0
28	336	0.231841583976	0
28	336	0.231841583976	0
28	428	0.329753800761	0
28	428	0.329753800761	0
28	432	0.329799800761	0
28	432	0.329799800761	0
28	527	0.429753800761	0
28	527	0.429753800761	0
28	531	0.429799800761	0
28	531	0.429799800761	0
28	610	0.515314512467	0
28	610	0.515314512467	2
28	612	0.515314512467	2
28	612	0.515314512467	3
28	614	0.515314512467	3
28	614	0.515314512467	3
28	635	0.515663192937	3
28	635	0.515663192937	3
28	636	0.515663192937	3
28	636	0.515663192937	0
28	644	0.516193192937	0
28	644	0.516193192937	0
28	648	0.516227192937	0
28	648	0.516227192937	0
28	651	0.516227192937	0
28	651	0.516227192937	2
28	655	0.516237192937	2
28	655	0.516237192937	1
28	662	0.516541192937	1
28	662	0.516541192937	2
28	668	0.516931192937	2
28	668	0.516931192937	3
28	670	0.516931192937	3
28	670	0.516931192937	3
28	691	0.517279873407	3
28	691	0.517279873407	3
28	692	0.517279873407	3
28	692	0.517279873407	0
28	700	0.517429873407	0
28	700	0.517429873407	0
28	704	0.517463873407	0
28	704	0.517463873407	0
28	710	0.517463873407	0
28	710	0.517463873407	2
28	715	0.517473873407	2
28	715	0.517473873407	1
28	722	0.517777873407	1
28	722	0.517777873407	2
28	732	0.518327873407	2
28	732	0.518327873407	3
28	734	0.518327873407	3
28	734	0.518327873407	3
28	755	0.518676553877	3
28	755	0.518676553877	3
28	756	0.518676553877	3
28	756	0.518676553877	0
28	764	0.518986553877	0
28	764	0.518986553877	0
28	768	0.519024553877	0
28	768	0.519024553877	0
28	775	0.519034553877	0
28	775	0.519034553877	0
28	782	0.519338553877	0
28	782	0.519338553877	0
28	814	0.529753800761	0
28	814	0.529753800761	0
28	818	0.529799800761	0
28	818	0.529799800761	0
28	835	0.531276863478	0
28	835	0.531276863478	0
28	842	0.531310863478	0
28	842	0.531310863478	0
28	843	0.531310863478	0
28	843	0.531310863478	0
28	855	0.531624863478	0
28	855	0.531624863478	0
28	862	0.532074863477	0
28	862	0.532074863477	0
28	866	0.532108863477	0
28	866	0.532108863477	0
28	867	0.532108863477	0
28	867	0.532108863477	0
28	884	0.532423583976	0
28	884	0.532423583976	0
28	891	0.532853583976	0
28	891	0.532853583976	0
28	898	0.532887583976	0
28	898	0.532887583976	0
28	899	0.532887583976	0
28	899	0.532887583976	0
28	911	0.533201583976	0
28	911	0.533201583976	0
28	922	0.533571583975	0
28	922	0.533571583975	0
28	926	0.533605583975	0
28	926	0.533605583975	0
28	927	0.533605583975	0
28	927	0.533605583975	0
28	948	0.533920304474	0
28	948	0.533920304474	0
28	955	0.534350304474	0
28	955	0.534350304474	0
28	962	0.534384304474	0
28	962	0.534384304474	0
28	963	0.534384304474	0
28	963	0.534384304474	0
28	975	0.534698304474	0
28	975	0.534698304474	0
28	982	0.534848304473	0
28	982	0.534848304473	0
28	986	0.534886304473	0
28	986	0.534886304473	0
28	987	0.534886304473	0
28	987	0.534886304473	0
28	1004	0.535201024972	0
28	1004	0.535201024972	0
28	1016	0.53823017106	0
28	1016	0.53823017106	0
28	1023	0.53827617106	0
28	1023	0.53827617106	0
28	1024	0.53827617106	0
28	1024	0.53827617106	0
28	1036	0.53859017106	0
28	1036	0.53859017106	0
28	1043	0.538940171059	0
28	1043	0.538940171059	0
28	1047	0.538986171059	0
28	1047	0.538986171059	0
28	1054	0.538986171059	0
28	1054	0.538986171059	2
28	1058	0.538996171059	2
28	1058	0.538996171059	1
28	1065	0.539300171059	1
28	1065	0.539300171059	2
28	1071	0.539650171059	2
28	1071	0.539650171059	3
28	1073	0.539650171059	3
28	1073	0.539650171059	3
28	1095	0.540010851529	3
28	1095	0.540010851529	3
28	1096	0.540010851529	3
28	1096	0.540010851529	0
28	1104	0.540060851529	0
28	1104	0.540060851529	0
28	1108	0.540106851529	0
28	1108	0.540106851529	0
28	1109	0.540106851529	0
28	1109	0.540106851529	0
28	1128	0.540421572028	0
28	1128	0.540421572028	0
28	1146	0.54323017106	0
28	1146	0.54323017106	0
28	1153	0.54327617106	0
28	1153	0.54327617106	0
28	1154	0.54327617106	0
28	1154	0.54327617106	0
28	1166	0.54359017106	0
28	1166	0.54359017106	0
28	1174	0.543700171059	0
28	1174	0.543700171059	0
28	1178	0.543746171059	0
28	1178	0.543746171059	0
28	1185	0.543746171059	0
28	1185	0.543746171059	2
28	1189	0.543756171059	2
28	1189	0.543756171059	1
28	1197	0.544060171059	1
28	1197	0.544060171059	2
28	1204	0.544590171059	2
28	1204	0.544590171059	3
28	1206	0.544590171059	3
28	1206	0.544590171059	3
28	1229	0.544950851529	3
28	1229	0.544950851529	3
28	1230	0.544950851529	3
28	1230	0.544950851529	0
28	1239	0.545340851529	0
28	1239	0.545340851529	0
28	1243	0.545386851529	0
28	1243	0.545386851529	0
28	1244	0.545386851529	0
28	1244	0.545386851529	0
28	1263	0.545701572028	0
28	1263	0.545701572028	0
28	1275	0.54823017106	0
28	1275	0.54823017106	0
28	1283	0.54827617106	0
28	1283	0.54827617106	0
28	1284	0.54827617106	0
28	1284	0.54827617106	0
28	1296	0.54859017106	0
28	1296	0.54859017106	0
28	1305	0.549220171059	0
28	1305	0.549220171059	0
28	1309	0.549266171059	0
28	1309	0.549266171059	0
28	1316	0.549266171059	0
28	1316	0.549266171059	2
28	1320	0.549276171059	2
28	1320	0.549276171059	1
28	1328	0.549580171059	1
28	1328	0.549580171059	2
28	1335	0.550010171059	2
28	1335	0.550010171059	3
28	1337	0.550010171059	3
28	1337	0.550010171059	3
28	1360	0.550370851529	3
28	1360	0.550370851529	3
28	1361	0.550370851529	3
28	1361	0.550370851529	0
28	1370	0.550800851529	0
28	1370	0.550800851529	0
28	1374	0.550846851529	0
28	1374	0.550846851529	0
28	1375	0.550846851529	0
28	1375	0.550846851529	0
28	1394	0.551161572028	0
28	1394	0.551161572028	0
28	1406	0.55323017106	0
28	1406	0.55323017106	0
28	1414	0.55327617106	0
28	1414	0.55327617106	0
28	1415	0.55327617106	0
28	1415	0.55327617106	0
28	1427	0.55359017106	0
28	1427	0.55359017106	0
28	1436	0.553780171059	0
28	1436	0.553780171059	0
28	1440	0.553826171059	0
28	1440	0.553826171059	0
28	1447	0.553826171059	0
28	1447	0.553826171059	2
28	1451	0.553836171059	2
28	1451	0.553836171059	1
28	1459	0.554140171059	1
28	1459	0.554140171059	2
28	1465	0.554190171059	2
28	1465	0.554190171059	3
28	1467	0.554190171059	3
28	1467	0.554190171059	3
28	1488	0.554550851529	3
28	1488	0.554550851529	3
28	1489	0.554550851529	3
28	1489	0.554550851529	0
29	1115	0.540106871543	0.001877400968
29	1250	0.545386871543	0.002157400968
29	1381	0.550846871543	0.002617400968
30	1115	0.540106871543	107
32	5	0.003229470575	0
32	9	0.008229470575	1
32	13	0.013229470575	2
32	17	0.018229470575	3
32	21	0.023229470575	4
32	25	0.028229470575	5
32	45	0.033229470575	6
32	49	0.038229470575	7
32	54	0.043229470575	8
32	58	0.048229470575	9
32	62	0.053229470575	10
32	66	0.058229470575	11
32	70	0.063229470575	12
32	74	0.068229470575	13
32	78	0.073229470575	14
32	82	0.078229470575	15
32	86	0.083229470575	16
32	90	0.088229470575	17
32	94	0.093229470575	18
32	98	0.098229470575	19
32	102	0.103229470575	20
32	106	0.108229470575	21
32	110	0.113229470575	22
32	118	0.118229470575	23
32	122	0.123229470575	24
32	126	0.128229470575	25
32	150	0.133229470575	26
32	154	0.138229470575	27
32	159	0.143229470575	28
32	163	0.148229470575	29
32	167	0.153229470575	30
32	171	0.158229470575	31
32	175	0.163229470575	32
32	179	0.168229470575	33
32	183	0.173229470575	34
32	187	0.178229470575	35
32	191	0.183229470575	36
32	195	0.188229470575	37
32	199	0.193229470575	38
32	203	0.198229470575	39
32	207	0.203229470575	40
32	211	0.208229470575	41
32	215	0.213229470575	42
32	263	0.218229470575	43
32	267	0.223229470575	44
32	274	0.228229470575	45
32	338	0.233229470575	46
32	342	0.238229470575	47
32	350	0.243229470575	48
32	354	0.248229470575	49
32	358	0.253229470575	50
32	362	0.258229470575	51
32	366	0.263229470575	52
32	370	0.268229470575	53
32	374	0.273229470575	54
32	378	0.278229470575	55
32	382	0.283229470575	56
32	386	0.288229470575	57
32	390	0.293229470575	58
32	394	0.298229470575	59
32	398	0.303229470575	60
32	402	0.308229470575	61
32	406	0.313229470575	62
32	410	0.318229470575	63
32	414	0.323229470575	64
32	418	0.328229470575	65
32	438	0.333229470575	66
32	442	0.338229470575	67
32	447	0.343229470575	68
32	451	0.348229470575	69
32	455	0.353229470575	70
32	459	0.358229470575	71
32	463	0.363229470575	72
32	468	0.368229470575	73
32	472	0.373229470575	74
32	476	0.378229470575	75
32	481	0.383229470575	76
32	485	0.388229470575	77
32	489	0.393229470575	78
32	493	0.398229470575	79
32	497	0.403229470575	80
32	501	0.408229470575	81
32	505	0.413229470575	82
32	509	0.418229470575	83
32	513	0.423229470575	84
32	517	0.428229470575	85
32	537	0.433229470575	86
32	541	0.438229470575	87
32	546	0.443229470575	88
32	550	0.448229470575	89
32	554	0.453229470575	90
32	558	0.458229470575	91
32	562	0.463229470575	92
32	566	0.468229470575	93
32	570	0.473229470575	94
32	574	0.478229470575	95
32	578	0.483229470575	96
32	582	0.488229470575	97
32	586	0.493229470575	98
32	590	0.498229470575	99
32	594	0.503229470575	100
32	598	0.508229470575	101
32	602	0.513229470575	102
32	728	0.518229470575	103
32	788	0.523229470575	104
32	800	0.528229470575	105
32	914	0.533229470575	106
32	1006	0.538229470575	107
32	1136	0.543229470575	108
32	1265	0.548229470575	109
32	1396	0.553229470575	110
33	1115	0.540106871543	107
33	1250	0.545386871543	108
33	1381	0.550846871543	109
37	146	0.131276162993	1
37	825	0.531276162993	2
37	931	0.533605603989	4
38	825	0.531276162993	1
38	931	0.533605603989	2
38	991	0.534886324487	4
40	43	0.029799820775	48
40	144	0.129799820775	48
40	234	0.215357212952	40
40	292	0.229799820775	48
40	322	0.231526883491	78
40	436	0.329799820775	48
40	535	0.429799820775	48
40	822	0.529799820775	48
40	869	0.532108883491	34
40	929	0.533605603989	34
40	989	0.534886324487	54
40	1111	0.540106871543	120
40	1246	0.545386871543	120
40	1377	0.550846871543	120
41	297	0.231276162993	40
41	324	0.231536883491	14
41	831	0.531276162993	34
41	872	0.532118883491	14
41	887	0.532852883491	34
41	936	0.533615603989	14
41	951	0.534349603989	44
41	992	0.534896324487	14
41	1012	0.538229470575	120
41	1116	0.540116871543	14
41	1142	0.543229470575	120
41	1251	0.545396871543	14
41	1271	0.548229470575	120
41	1382	0.550856871543	14
41	1402	0.553229470575	120
42	295	0.231276162993	40
42	828	0.531276162993	34
42	871	0.532108883491	34
42	934	0.533605603989	44
42	1010	0.538229470575	120
42	1140	0.543229470575	120
42	1269	0.548229470575	120
42	1400	0.553229470575	120
43	43	0.029799820775	48
43	144	0.129799820775	48
43	234	0.215357212952	40
43	248	0.215685212951	78
43	262	0.215999893422	14
43	292	0.229799820775	48
43	322	0.231526883491	78
43	436	0.329799820775	48
43	535	0.429799820775	48
43	625	0.515349212952	34
43	638	0.515663212951	14
43	653	0.516227212951	34
43	667	0.516541893422	14
43	681	0.516965893422	34
43	694	0.517279893421	14
43	713	0.517463893421	34
43	727	0.517778573892	14
43	745	0.518362573892	44
43	758	0.518676573891	14
43	773	0.519024573891	54
43	787	0.519339254362	14
43	822	0.529799820775	48
43	857	0.531624883491	14
43	869	0.532108883491	34
43	913	0.533201603989	14
43	929	0.533605603989	34
43	977	0.534698324487	14
43	989	0.534886324487	54
43	1038	0.538590191073	14
43	1056	0.538986191073	120
43	1070	0.539300871544	14
43	1084	0.539696871544	120
43	1098	0.540010871543	14
43	1111	0.540106871543	120
43	1168	0.543590191073	14
43	1187	0.543746191073	120
43	1202	0.544060871544	14
43	1217	0.544636871544	120
43	1232	0.544950871543	14
43	1246	0.545386871543	120
43	1299	0.548590191073	14
43	1318	0.549266191073	120
43	1333	0.549580871544	14
43	1349	0.550056871544	120
43	1363	0.550370871543	14
43	1377	0.550846871543	120
43	1430	0.553590191073	14
43	1449	0.553826191073	120
43	1464	0.554140871544	14
43	1478	0.554236871544	120
44	0	0	0
44	0	0	2
44	298	0.231276162993	3
44	303	0.231318162993	2
44	325	0.231536883491	3
44	333	0.231840883491	2
44	832	0.531276162993	3
44	837	0.531310162993	2
44	873	0.532118883491	3
44	881	0.532422883491	2
44	888	0.532852883491	3
44	893	0.532886883491	2
44	937	0.533615603989	3
44	945	0.533919603989	2
44	952	0.534349603989	3
44	957	0.534383603989	2
44	993	0.534896324487	3
44	1001	0.535200324487	2
44	1013	0.538229470575	3
44	1018	0.538275470575	2
44	1117	0.540116871543	3
44	1125	0.540420871543	2
44	1143	0.543229470575	3
44	1148	0.543275470575	2
44	1252	0.545396871543	3
44	1260	0.545700871543	2
44	1272	0.548229470575	3
44	1277	0.548275470575	2
44	1383	0.550856871543	3
44	1391	0.551160871543	2
44	1403	0.553229470575	3
44	1408	0.553275470575	2
45	0	0	1
45	36	0.029753820775	3
45	42	0.029799820775	1
45	137	0.129753820775	3
45	143	0.129799820775	1
45	226	0.215315212952	3
45	233	0.215357212952	1
45	241	0.215647212951	3
45	247	0.215685212951	1
45	253	0.215695893422	3
45	261	0.215999893422	1
45	285	0.229753820775	3
45	291	0.229799820775	1
45	298	0.231276162993	0
45	303	0.231318162993	1
45	316	0.231488883491	3
45	321	0.231526883491	1
45	325	0.231536883491	0
45	333	0.231840883491	1
45	429	0.329753820775	3
45	435	0.329799820775	1
45	528	0.429753820775	3
45	534	0.429799820775	1
45	617	0.515315212952	3
45	624	0.515349212952	1
45	630	0.515359212951	3
45	637	0.515663212951	1
45	645	0.516193212951	3
45	652	0.516227212951	1
45	658	0.516237893422	3
45	666	0.516541893422	1
45	673	0.516931893422	3
45	680	0.516965893422	1
45	686	0.516975893421	3
45	693	0.517279893421	1
45	701	0.517429893421	3
45	712	0.517463893421	1
45	718	0.517474573892	3
45	726	0.517778573892	1
45	737	0.518328573892	3
45	744	0.518362573892	1
45	750	0.518372573891	3
45	757	0.518676573891	1
45	765	0.518986573891	3
45	772	0.519024573891	1
45	778	0.519035254362	3
45	786	0.519339254362	1
45	815	0.529753820775	3
45	821	0.529799820775	1
45	832	0.531276162993	0
45	837	0.531310162993	1
45	848	0.531320883491	3
45	856	0.531624883491	1
45	863	0.532074883491	3
45	868	0.532108883491	1
45	873	0.532118883491	0
45	881	0.532422883491	1
45	888	0.532852883491	0
45	893	0.532886883491	1
45	904	0.532897603989	3
45	912	0.533201603989	1
45	923	0.533571603989	3
45	928	0.533605603989	1
45	937	0.533615603989	0
45	945	0.533919603989	1
45	952	0.534349603989	0
45	957	0.534383603989	1
45	968	0.534394324487	3
45	976	0.534698324487	1
45	983	0.534848324487	3
45	988	0.534886324487	1
45	993	0.534896324487	0
45	1001	0.535200324487	1
45	1013	0.538229470575	0
45	1018	0.538275470575	1
45	1029	0.538286191073	3
45	1037	0.538590191073	1
45	1044	0.538940191073	3
45	1055	0.538986191073	1
45	1061	0.538996871544	3
45	1069	0.539300871544	1
45	1076	0.539650871544	3
45	1083	0.539696871544	1
45	1089	0.539706871543	3
45	1097	0.540010871543	1
45	1105	0.540060871543	3
45	1110	0.540106871543	1
45	1117	0.540116871543	0
45	1125	0.540420871543	1
45	1143	0.543229470575	0
45	1148	0.543275470575	1
45	1159	0.543286191073	3
45	1167	0.543590191073	1
45	1175	0.543700191073	3
45	1186	0.543746191073	1
45	1192	0.543756871544	3
45	1201	0.544060871544	1
45	1209	0.544590871544	3
45	1216	0.544636871544	1
45	1222	0.544646871543	3
45	1231	0.544950871543	1
45	1240	0.545340871543	3
45	1245	0.545386871543	1
45	1252	0.545396871543	0
45	1260	0.545700871543	1
45	1272	0.548229470575	0
45	1277	0.548275470575	1
45	1289	0.548286191073	3
45	1298	0.548590191073	1
45	1306	0.549220191073	3
45	1317	0.549266191073	1
45	1323	0.549276871544	3
45	1332	0.549580871544	1
45	1341	0.550010871544	3
45	1348	0.550056871544	1
45	1354	0.550066871543	3
45	1362	0.550370871543	1
45	1371	0.550800871543	3
45	1376	0.550846871543	1
45	1383	0.550856871543	0
45	1391	0.551160871543	1
45	1403	0.553229470575	0
45	1408	0.553275470575	1
45	1420	0.553286191073	3
45	1429	0.553590191073	1
45	1437	0.553780191073	3
45	1448	0.553826191073	1
45	1454	0.553836871544	3
45	1463	0.554140871544	1
45	1470	0.554190871544	3
45	1477	0.554236871544	1
45	1483	0.554246871543	3
45	1490	0.554550871543	1
46	298	0.231276162993	1
46	299	0.231276162993	2
46	302	0.231318162993	1
46	303	0.231318162993	0
46	325	0.231536883491	1
46	326	0.231536883491	2
46	332	0.231840883491	1
46	333	0.231840883491	0
46	832	0.531276162993	1
46	833	0.531276162993	2
46	836	0.531310162993	1
46	837	0.531310162993	0
46	873	0.532118883491	1
46	874	0.532118883491	2
46	880	0.532422883491	1
46	881	0.532422883491	0
46	888	0.532852883491	1
46	889	0.532852883491	2
46	892	0.532886883491	1
46	893	0.532886883491	0
46	937	0.533615603989	1
46	938	0.533615603989	2
46	944	0.533919603989	1
46	945	0.533919603989	0
46	952	0.534349603989	1
46	953	0.534349603989	2
46	956	0.534383603989	1
46	957	0.534383603989	0
46	993	0.534896324487	1
46	994	0.534896324487	2
46	1000	0.535200324487	1
46	1001	0.535200324487	0
46	1013	0.538229470575	1
46	1014	0.538229470575	2
46	1017	0.538275470575	1
46	1018	0.538275470575	0
46	1117	0.540116871543	1
46	1118	0.540116871543	2
46	1124	0.540420871543	1
46	1125	0.540420871543	0
46	1143	0.543229470575	1
46	1144	0.543229470575	2
46	1147	0.543275470575	1
46	1148	0.543275470575	0
46	1252	0.545396871543	1
46	1253	0.545396871543	2
46	1259	0.545700871543	1
46	1260	0.545700871543	0
46	1272	0.548229470575	1
46	1273	0.548229470575	2
46	1276	0.548275470575	1
46	1277	0.548275470575	0
46	1383	0.550856871543	1
46	1384	0.550856871543	2
46	1390	0.551160871543	1
46	1391	0.551160871543	0
46	1403	0.553229470575	1
46	1404	0.553229470575	2
46	1407	0.553275470575	1
46	1408	0.553275470575	0
47	0	0	0
47	149	0.131276162993	0
47	829	0.531276162993	0
47	935	0.533605603989	0
48	0	0	0
48	0	0	0
48	0	0	0
48	0	0	0
48	36	0.029753820775	0
48	36	0.029753820775	0
48	42	0.029799820775	0
48	42	0.029799820775	0
48	137	0.129753820775	0
48	137	0.129753820775	0
48	143	0.129799820775	0
48	143	0.129799820775	0
48	226	0.215315212952	0
48	226	0.215315212952	0
48	233	0.215357212952	0
48	233	0.215357212952	0
48	241	0.215647212951	0
48	241	0.215647212951	0
48	247	0.215685212951	0
48	247	0.215685212951	0
48	248	0.215685212951	0
48	248	0.215685212951	0
48	261	0.215999893422	0
48	261	0.215999893422	0
48	285	0.229753820775	0
48	285	0.229753820775	0
48	291	0.229799820775	0
48	291	0.229799820775	0
48	295	0.231276162993	0
48	295	0.231276162993	2
48	296	0.231276162993	2
48	296	0.231276162993	3
48	298	0.231276162993	3
48	298	0.231276162993	3
48	302	0.231318162993	3
48	302	0.231318162993	0
48	303	0.231318162993	0
48	303	0.231318162993	0
48	316	0.231488883491	0
48	316	0.231488883491	0
48	321	0.231526883491	0
48	321	0.231526883491	0
48	325	0.231536883491	0
48	325	0.231536883491	0
48	333	0.231840883491	0
48	333	0.231840883491	0
48	429	0.329753820775	0
48	429	0.329753820775	0
48	435	0.329799820775	0
48	435	0.329799820775	0
48	528	0.429753820775	0
48	528	0.429753820775	0
48	534	0.429799820775	0
48	534	0.429799820775	0
48	617	0.515315212952	0
48	617	0.515315212952	0
48	624	0.515349212952	0
48	624	0.515349212952	0
48	625	0.515349212952	0
48	625	0.515349212952	0
48	639	0.515663212952	0
48	639	0.515663212952	0
48	645	0.516193212951	0
48	645	0.516193212951	0
48	652	0.516227212951	0
48	652	0.516227212951	0
48	653	0.516227212951	0
48	653	0.516227212951	0
48	666	0.516541893422	0
48	666	0.516541893422	0
48	673	0.516931893422	0
48	673	0.516931893422	0
48	680	0.516965893422	0
48	680	0.516965893422	0
48	681	0.516965893422	0
48	681	0.516965893422	0
48	695	0.517279893422	0
48	695	0.517279893422	0
48	701	0.517429893421	0
48	701	0.517429893421	0
48	712	0.517463893421	0
48	712	0.517463893421	0
48	713	0.517463893421	0
48	713	0.517463893421	0
48	726	0.517778573892	0
48	726	0.517778573892	0
48	737	0.518328573892	0
48	737	0.518328573892	0
48	744	0.518362573892	0
48	744	0.518362573892	0
48	745	0.518362573892	0
48	745	0.518362573892	0
48	759	0.518676573892	0
48	759	0.518676573892	0
48	765	0.518986573891	0
48	765	0.518986573891	0
48	772	0.519024573891	0
48	772	0.519024573891	0
48	773	0.519024573891	0
48	773	0.519024573891	0
48	786	0.519339254362	0
48	786	0.519339254362	0
48	815	0.529753820775	0
48	815	0.529753820775	0
48	821	0.529799820775	0
48	821	0.529799820775	0
48	828	0.531276162993	0
48	828	0.531276162993	2
48	830	0.531276162993	2
48	830	0.531276162993	3
48	832	0.531276162993	3
48	832	0.531276162993	3
48	856	0.531624883491	3
48	856	0.531624883491	3
48	857	0.531624883491	3
48	857	0.531624883491	0
48	863	0.532074883491	0
48	863	0.532074883491	0
48	868	0.532108883491	0
48	868	0.532108883491	0
48	871	0.532108883491	0
48	871	0.532108883491	2
48	873	0.532118883491	2
48	873	0.532118883491	1
48	881	0.532422883491	1
48	881	0.532422883491	2
48	886	0.532852883491	2
48	886	0.532852883491	3
48	888	0.532852883491	3
48	888	0.532852883491	3
48	912	0.533201603989	3
48	912	0.533201603989	3
48	913	0.533201603989	3
48	913	0.533201603989	0
48	923	0.533571603989	0
48	923	0.533571603989	0
48	928	0.533605603989	0
48	928	0.533605603989	0
48	934	0.533605603989	0
48	934	0.533605603989	2
48	937	0.533615603989	2
48	937	0.533615603989	1
48	945	0.533919603989	1
48	945	0.533919603989	2
48	950	0.534349603989	2
48	950	0.534349603989	3
48	952	0.534349603989	3
48	952	0.534349603989	3
48	976	0.534698324487	3
48	976	0.534698324487	3
48	977	0.534698324487	3
48	977	0.534698324487	0
48	983	0.534848324487	0
48	983	0.534848324487	0
48	988	0.534886324487	0
48	988	0.534886324487	0
48	993	0.534896324487	0
48	993	0.534896324487	0
48	1001	0.535200324487	0
48	1001	0.535200324487	0
48	1010	0.538229470575	0
48	1010	0.538229470575	2
48	1011	0.538229470575	2
48	1011	0.538229470575	3
48	1013	0.538229470575	3
48	1013	0.538229470575	3
48	1037	0.538590191073	3
48	1037	0.538590191073	3
48	1038	0.538590191073	3
48	1038	0.538590191073	0
48	1044	0.538940191073	0
48	1044	0.538940191073	0
48	1055	0.538986191073	0
48	1055	0.538986191073	0
48	1056	0.538986191073	0
48	1056	0.538986191073	0
48	1069	0.539300871544	0
48	1069	0.539300871544	0
48	1076	0.539650871544	0
48	1076	0.539650871544	0
48	1083	0.539696871544	0
48	1083	0.539696871544	0
48	1084	0.539696871544	0
48	1084	0.539696871544	0
48	1099	0.540010871544	0
48	1099	0.540010871544	0
48	1105	0.540060871543	0
48	1105	0.540060871543	0
48	1110	0.540106871543	0
48	1110	0.540106871543	0
48	1117	0.540116871543	0
48	1117	0.540116871543	0
48	1125	0.540420871543	0
48	1125	0.540420871543	0
48	1140	0.543229470575	0
48	1140	0.543229470575	2
48	1141	0.543229470575	2
48	1141	0.543229470575	3
48	1143	0.543229470575	3
48	1143	0.543229470575	3
48	1167	0.543590191073	3
48	1167	0.543590191073	3
48	1168	0.543590191073	3
48	1168	0.543590191073	0
48	1175	0.543700191073	0
48	1175	0.543700191073	0
48	1186	0.543746191073	0
48	1186	0.543746191073	0
48	1187	0.543746191073	0
48	1187	0.543746191073	0
48	1201	0.544060871544	0
48	1201	0.544060871544	0
48	1209	0.544590871544	0
48	1209	0.544590871544	0
48	1216	0.544636871544	0
48	1216	0.544636871544	0
48	1217	0.544636871544	0
48	1217	0.544636871544	0
48	1233	0.544950871544	0
48	1233	0.544950871544	0
48	1240	0.545340871543	0
48	1240	0.545340871543	0
48	1245	0.545386871543	0
48	1245	0.545386871543	0
48	1252	0.545396871543	0
48	1252	0.545396871543	0
48	1260	0.545700871543	0
48	1260	0.545700871543	0
48	1269	0.548229470575	0
48	1269	0.548229470575	2
48	1270	0.548229470575	2
48	1270	0.548229470575	3
48	1272	0.548229470575	3
48	1272	0.548229470575	3
48	1298	0.548590191073	3
48	1298	0.548590191073	3
48	1299	0.548590191073	3
48	1299	0.548590191073	0
48	1306	0.549220191073	0
48	1306	0.549220191073	0
48	1317	0.549266191073	0
48	1317	0.549266191073	0
48	1318	0.549266191073	0
48	1318	0.549266191073	0
48	1332	0.549580871544	0
48	1332	0.549580871544	0
48	1341	0.550010871544	0
48	1341	0.550010871544	0
48	1348	0.550056871544	0
48	1348	0.550056871544	0
48	1349	0.550056871544	0
48	1349	0.550056871544	0
48	1364	0.550370871544	0
48	1364	0.550370871544	0
48	1371	0.550800871543	0
48	1371	0.550800871543	0
48	1376	0.550846871543	0
48	1376	0.550846871543	0
48	1383	0.550856871543	0
48	1383	0.550856871543	0
48	1391	0.551160871543	0
48	1391	0.551160871543	0
48	1400	0.553229470575	0
48	1400	0.553229470575	2
48	1401	0.553229470575	2
48	1401	0.553229470575	3
48	1403	0.553229470575	3
48	1403	0.553229470575	3
48	1429	0.553590191073	3
48	1429	0.553590191073	3
48	1430	0.553590191073	3
48	1430	0.553590191073	0
48	1437	0.553780191073	0
48	1437	0.553780191073	0
48	1448	0.553826191073	0
48	1448	0.553826191073	0
48	1449	0.553826191073	0
48	1449	0.553826191073	0
48	1463	0.554140871544	0
48	1463	0.554140871544	0
48	1470	0.554190871544	0
48	1470	0.554190871544	0
48	1477	0.554236871544	0
48	1477	0.554236871544	0
48	1478	0.554236871544	0
48	1478	0.554236871544	0
