file 11943 1483568792                                           
version 2
run Omrezje4-0-20170104-23:26:12-10808
attr configname Omrezje4
attr datetime 20170104-23:26:12
attr experiment Omrezje4
attr inifile omnetpp.ini
attr iterationvars ""
attr iterationvars2 $repetition=0
attr measurement ""
attr network Omrezje4
attr processid 10808
attr repetition 0
attr replication #0
attr resultdir results
attr runnumber 0
attr seedset 0
param *.accessPoint.wlan[0].radio.transmitter.power 100mW
param *.host*.networkLayer.arpType "\"GlobalARP\""
param *.host*.numPingApps 1
param *.host*.wlan[0].radio.displayCommunicationRange true
param *.host*.wlan[0].radio.transmitter.power "1 mW"
param *.host1.pingApp[0].destAddr "\"host0\""
param *.host1.pingApp[0].sendInterval 5ms
param *.host1.wlan[0].radio.displayInterferenceRange true
param *.physicalEnvironment.config "xmldoc(\"ucilnice.xml\")"
param *.radioMedium.backgroundNoise.power default
param *.radioMedium.obstacleLossType "\"IdealObstacleLoss\""
param *.radioMedium.pathLossType default

vector 8  Omrezje4.accessPoint.wlan[0].mac.ctn[0]  state:vector  ETV
attr interpolationmode  none
attr source  stateChanged
attr title  "contention state, vector"
vector 28  Omrezje4.host0.wlan[0].mac.ctn[0]  state:vector  ETV
attr interpolationmode  none
attr source  stateChanged
attr title  "contention state, vector"
vector 48  Omrezje4.host1.wlan[0].mac.ctn[0]  state:vector  ETV
attr interpolationmode  none
attr source  stateChanged
attr title  "contention state, vector"
vector 68  Omrezje4.host2.wlan[0].mac.ctn[0]  state:vector  ETV
attr interpolationmode  none
attr source  stateChanged
attr title  "contention state, vector"
vector 88  Omrezje4.host3.wlan[0].mac.ctn[0]  state:vector  ETV
attr interpolationmode  none
attr source  stateChanged
attr title  "contention state, vector"
vector 108  Omrezje4.host4.wlan[0].mac.ctn[0]  state:vector  ETV
attr interpolationmode  none
attr source  stateChanged
attr title  "contention state, vector"
vector 128  Omrezje4.host5.wlan[0].mac.ctn[0]  state:vector  ETV
attr interpolationmode  none
attr source  stateChanged
attr title  "contention state, vector"
vector 148  Omrezje4.host6.wlan[0].mac.ctn[0]  state:vector  ETV
attr interpolationmode  none
attr source  stateChanged
attr title  "contention state, vector"
vector 168  Omrezje4.host7.wlan[0].mac.ctn[0]  state:vector  ETV
attr interpolationmode  none
attr source  stateChanged
attr title  "contention state, vector"
vector 188  Omrezje4.host8.wlan[0].mac.ctn[0]  state:vector  ETV
attr interpolationmode  none
attr source  stateChanged
attr title  "contention state, vector"
vector 208  Omrezje4.host9.wlan[0].mac.ctn[0]  state:vector  ETV
attr interpolationmode  none
attr source  stateChanged
attr title  "contention state, vector"
vector 228  Omrezje4.host10.wlan[0].mac.ctn[0]  state:vector  ETV
attr interpolationmode  none
attr source  stateChanged
attr title  "contention state, vector"
vector 248  Omrezje4.host11.wlan[0].mac.ctn[0]  state:vector  ETV
attr interpolationmode  none
attr source  stateChanged
attr title  "contention state, vector"
vector 257  Omrezje4.accessPoint1.wlan[0].mac.ctn[0]  state:vector  ETV
attr interpolationmode  none
attr source  stateChanged
attr title  "contention state, vector"
vector 4  Omrezje4.accessPoint.wlan[0].radio  radioMode:vector  ETV
attr interpolationmode  sample-hold
attr source  radioModeChanged
attr title  "Radio mode, vector"
vector 7  Omrezje4.accessPoint.wlan[0].radio  radioChannel:vector  ETV
attr interpolationmode  sample-hold
attr source  radioChannelChanged
attr title  "Radio channel, vector"
vector 24  Omrezje4.host0.wlan[0].radio  radioMode:vector  ETV
attr interpolationmode  sample-hold
attr source  radioModeChanged
attr title  "Radio mode, vector"
vector 27  Omrezje4.host0.wlan[0].radio  radioChannel:vector  ETV
attr interpolationmode  sample-hold
attr source  radioChannelChanged
attr title  "Radio channel, vector"
vector 44  Omrezje4.host1.wlan[0].radio  radioMode:vector  ETV
attr interpolationmode  sample-hold
attr source  radioModeChanged
attr title  "Radio mode, vector"
vector 47  Omrezje4.host1.wlan[0].radio  radioChannel:vector  ETV
attr interpolationmode  sample-hold
attr source  radioChannelChanged
attr title  "Radio channel, vector"
vector 64  Omrezje4.host2.wlan[0].radio  radioMode:vector  ETV
attr interpolationmode  sample-hold
attr source  radioModeChanged
attr title  "Radio mode, vector"
vector 67  Omrezje4.host2.wlan[0].radio  radioChannel:vector  ETV
attr interpolationmode  sample-hold
attr source  radioChannelChanged
attr title  "Radio channel, vector"
vector 84  Omrezje4.host3.wlan[0].radio  radioMode:vector  ETV
attr interpolationmode  sample-hold
attr source  radioModeChanged
attr title  "Radio mode, vector"
vector 87  Omrezje4.host3.wlan[0].radio  radioChannel:vector  ETV
attr interpolationmode  sample-hold
attr source  radioChannelChanged
attr title  "Radio channel, vector"
vector 104  Omrezje4.host4.wlan[0].radio  radioMode:vector  ETV
attr interpolationmode  sample-hold
attr source  radioModeChanged
attr title  "Radio mode, vector"
vector 107  Omrezje4.host4.wlan[0].radio  radioChannel:vector  ETV
attr interpolationmode  sample-hold
attr source  radioChannelChanged
attr title  "Radio channel, vector"
vector 124  Omrezje4.host5.wlan[0].radio  radioMode:vector  ETV
attr interpolationmode  sample-hold
attr source  radioModeChanged
attr title  "Radio mode, vector"
vector 127  Omrezje4.host5.wlan[0].radio  radioChannel:vector  ETV
attr interpolationmode  sample-hold
attr source  radioChannelChanged
attr title  "Radio channel, vector"
vector 144  Omrezje4.host6.wlan[0].radio  radioMode:vector  ETV
attr interpolationmode  sample-hold
attr source  radioModeChanged
attr title  "Radio mode, vector"
vector 147  Omrezje4.host6.wlan[0].radio  radioChannel:vector  ETV
attr interpolationmode  sample-hold
attr source  radioChannelChanged
attr title  "Radio channel, vector"
vector 164  Omrezje4.host7.wlan[0].radio  radioMode:vector  ETV
attr interpolationmode  sample-hold
attr source  radioModeChanged
attr title  "Radio mode, vector"
vector 167  Omrezje4.host7.wlan[0].radio  radioChannel:vector  ETV
attr interpolationmode  sample-hold
attr source  radioChannelChanged
attr title  "Radio channel, vector"
vector 184  Omrezje4.host8.wlan[0].radio  radioMode:vector  ETV
attr interpolationmode  sample-hold
attr source  radioModeChanged
attr title  "Radio mode, vector"
vector 187  Omrezje4.host8.wlan[0].radio  radioChannel:vector  ETV
attr interpolationmode  sample-hold
attr source  radioChannelChanged
attr title  "Radio channel, vector"
vector 204  Omrezje4.host9.wlan[0].radio  radioMode:vector  ETV
attr interpolationmode  sample-hold
attr source  radioModeChanged
attr title  "Radio mode, vector"
vector 207  Omrezje4.host9.wlan[0].radio  radioChannel:vector  ETV
attr interpolationmode  sample-hold
attr source  radioChannelChanged
attr title  "Radio channel, vector"
vector 224  Omrezje4.host10.wlan[0].radio  radioMode:vector  ETV
attr interpolationmode  sample-hold
attr source  radioModeChanged
attr title  "Radio mode, vector"
vector 227  Omrezje4.host10.wlan[0].radio  radioChannel:vector  ETV
attr interpolationmode  sample-hold
attr source  radioChannelChanged
attr title  "Radio channel, vector"
vector 244  Omrezje4.host11.wlan[0].radio  radioMode:vector  ETV
attr interpolationmode  sample-hold
attr source  radioModeChanged
attr title  "Radio mode, vector"
vector 247  Omrezje4.host11.wlan[0].radio  radioChannel:vector  ETV
attr interpolationmode  sample-hold
attr source  radioChannelChanged
attr title  "Radio channel, vector"
vector 253  Omrezje4.accessPoint1.wlan[0].radio  radioMode:vector  ETV
attr interpolationmode  sample-hold
attr source  radioModeChanged
attr title  "Radio mode, vector"
vector 256  Omrezje4.accessPoint1.wlan[0].radio  radioChannel:vector  ETV
attr interpolationmode  sample-hold
attr source  radioChannelChanged
attr title  "Radio channel, vector"
vector 5  Omrezje4.accessPoint.wlan[0].radio  receptionState:vector  ETV
attr interpolationmode  sample-hold
attr source  receptionStateChanged
attr title  "Radio reception state, vector"
vector 25  Omrezje4.host0.wlan[0].radio  receptionState:vector  ETV
attr interpolationmode  sample-hold
attr source  receptionStateChanged
attr title  "Radio reception state, vector"
vector 45  Omrezje4.host1.wlan[0].radio  receptionState:vector  ETV
attr interpolationmode  sample-hold
attr source  receptionStateChanged
attr title  "Radio reception state, vector"
vector 65  Omrezje4.host2.wlan[0].radio  receptionState:vector  ETV
attr interpolationmode  sample-hold
attr source  receptionStateChanged
attr title  "Radio reception state, vector"
vector 85  Omrezje4.host3.wlan[0].radio  receptionState:vector  ETV
attr interpolationmode  sample-hold
attr source  receptionStateChanged
attr title  "Radio reception state, vector"
vector 105  Omrezje4.host4.wlan[0].radio  receptionState:vector  ETV
attr interpolationmode  sample-hold
attr source  receptionStateChanged
attr title  "Radio reception state, vector"
vector 125  Omrezje4.host5.wlan[0].radio  receptionState:vector  ETV
attr interpolationmode  sample-hold
attr source  receptionStateChanged
attr title  "Radio reception state, vector"
vector 145  Omrezje4.host6.wlan[0].radio  receptionState:vector  ETV
attr interpolationmode  sample-hold
attr source  receptionStateChanged
attr title  "Radio reception state, vector"
vector 165  Omrezje4.host7.wlan[0].radio  receptionState:vector  ETV
attr interpolationmode  sample-hold
attr source  receptionStateChanged
attr title  "Radio reception state, vector"
vector 185  Omrezje4.host8.wlan[0].radio  receptionState:vector  ETV
attr interpolationmode  sample-hold
attr source  receptionStateChanged
attr title  "Radio reception state, vector"
vector 205  Omrezje4.host9.wlan[0].radio  receptionState:vector  ETV
attr interpolationmode  sample-hold
attr source  receptionStateChanged
attr title  "Radio reception state, vector"
vector 225  Omrezje4.host10.wlan[0].radio  receptionState:vector  ETV
attr interpolationmode  sample-hold
attr source  receptionStateChanged
attr title  "Radio reception state, vector"
vector 245  Omrezje4.host11.wlan[0].radio  receptionState:vector  ETV
attr interpolationmode  sample-hold
attr source  receptionStateChanged
attr title  "Radio reception state, vector"
vector 254  Omrezje4.accessPoint1.wlan[0].radio  receptionState:vector  ETV
attr interpolationmode  sample-hold
attr source  receptionStateChanged
attr title  "Radio reception state, vector"
4	10759 18 0 0 0 0 2 0 2 2 4
5	10777 9 0 0 0 0 1 1 1 1 1
7	10786 9 0 0 0 0 1 0 0 0 0
8	10795 36 0 0 0 0 4 0 0 0 0
24	10831 20 0 0 0 0 2 0 2 2 4
25	10851 10 0 0 0 0 1 1 1 1 1
27	10861 10 0 0 0 0 1 0 0 0 0
28	10871 40 0 0 0 0 4 0 0 0 0
44	10911 20 0 0 0 0 2 0 2 2 4
45	10931 10 0 0 0 0 1 1 1 1 1
47	10941 10 0 0 0 0 1 0 0 0 0
48	10951 40 0 0 0 0 4 0 0 0 0
64	10991 20 0 0 0 0 2 0 2 2 4
65	11011 10 0 0 0 0 1 1 1 1 1
67	11021 10 0 0 0 0 1 0 0 0 0
68	11031 40 0 0 0 0 4 0 0 0 0
84	11071 20 0 0 0 0 2 0 2 2 4
85	11091 10 0 0 0 0 1 1 1 1 1
87	11101 10 0 0 0 0 1 0 0 0 0
88	11111 40 0 0 0 0 4 0 0 0 0
104	11151 22 0 0 0 0 2 0 2 2 4
105	11173 11 0 0 0 0 1 1 1 1 1
107	11184 11 0 0 0 0 1 0 0 0 0
108	11195 44 0 0 0 0 4 0 0 0 0
124	11239 22 0 0 0 0 2 0 2 2 4
125	11261 11 0 0 0 0 1 1 1 1 1
127	11272 11 0 0 0 0 1 0 0 0 0
128	11283 44 0 0 0 0 4 0 0 0 0
144	11327 22 0 0 0 0 2 0 2 2 4
145	11349 11 0 0 0 0 1 1 1 1 1
147	11360 11 0 0 0 0 1 0 0 0 0
148	11371 44 0 0 0 0 4 0 0 0 0
164	11415 22 0 0 0 0 2 0 2 2 4
165	11437 11 0 0 0 0 1 1 1 1 1
167	11448 11 0 0 0 0 1 0 0 0 0
168	11459 44 0 0 0 0 4 0 0 0 0
184	11503 22 0 0 0 0 2 0 2 2 4
185	11525 11 0 0 0 0 1 1 1 1 1
187	11536 11 0 0 0 0 1 0 0 0 0
188	11547 44 0 0 0 0 4 0 0 0 0
204	11591 22 0 0 0 0 2 0 2 2 4
205	11613 11 0 0 0 0 1 1 1 1 1
207	11624 11 0 0 0 0 1 0 0 0 0
208	11635 44 0 0 0 0 4 0 0 0 0
224	11679 22 0 0 0 0 2 0 2 2 4
225	11701 11 0 0 0 0 1 1 1 1 1
227	11712 11 0 0 0 0 1 0 0 0 0
228	11723 44 0 0 0 0 4 0 0 0 0
244	11767 22 0 0 0 0 2 0 2 2 4
245	11789 11 0 0 0 0 1 1 1 1 1
247	11800 11 0 0 0 0 1 0 0 0 0
248	11811 44 0 0 0 0 4 0 0 0 0
253	11855 22 0 0 0 0 2 0 2 2 4
254	11877 11 0 0 0 0 1 1 1 1 1
256	11888 11 0 0 0 0 1 0 0 0 0
257	11899 44 0 0 0 0 4 0 0 0 0
