file 4097 1483569844                                            
version 2
run Omrezje3-0-20170104-23:16:56-10532
attr configname Omrezje3
attr datetime 20170104-23:16:56
attr experiment Omrezje3
attr inifile omnetpp.ini
attr iterationvars ""
attr iterationvars2 $repetition=0
attr measurement ""
attr network Omrezje3
attr processid 10532
attr repetition 0
attr replication #0
attr resultdir results
attr runnumber 0
attr seedset 0
param *.accessPoint.wlan[0].radio.transmitter.power 100mW
param *.host*.networkLayer.arpType "\"GlobalARP\""
param *.host*.numPingApps 1
param *.host*.wlan[0].radio.displayCommunicationRange true
param *.host*.wlan[0].radio.transmitter.power "0.5 mW"
param *.host1.pingApp[0].destAddr "\"host0\""
param *.host1.pingApp[0].sendInterval 5ms
param *.host1.wlan[0].radio.displayInterferenceRange true
param *.physicalEnvironment.config "xmldoc(\"hisa.xml\")"
param *.radioMedium.backgroundNoise.power default
param *.radioMedium.obstacleLossType "\"IdealObstacleLoss\""
param *.radioMedium.pathLossType default

vector 8  Omrezje3.accessPoint.wlan[0].mac.ctn[0]  state:vector  ETV
attr interpolationmode  none
attr source  stateChanged
attr title  "contention state, vector"
vector 28  Omrezje3.host0.wlan[0].mac.ctn[0]  state:vector  ETV
attr interpolationmode  none
attr source  stateChanged
attr title  "contention state, vector"
vector 48  Omrezje3.host1.wlan[0].mac.ctn[0]  state:vector  ETV
attr interpolationmode  none
attr source  stateChanged
attr title  "contention state, vector"
vector 68  Omrezje3.host2.wlan[0].mac.ctn[0]  state:vector  ETV
attr interpolationmode  none
attr source  stateChanged
attr title  "contention state, vector"
vector 4  Omrezje3.accessPoint.wlan[0].radio  radioMode:vector  ETV
attr interpolationmode  sample-hold
attr source  radioModeChanged
attr title  "Radio mode, vector"
vector 7  Omrezje3.accessPoint.wlan[0].radio  radioChannel:vector  ETV
attr interpolationmode  sample-hold
attr source  radioChannelChanged
attr title  "Radio channel, vector"
vector 24  Omrezje3.host0.wlan[0].radio  radioMode:vector  ETV
attr interpolationmode  sample-hold
attr source  radioModeChanged
attr title  "Radio mode, vector"
vector 27  Omrezje3.host0.wlan[0].radio  radioChannel:vector  ETV
attr interpolationmode  sample-hold
attr source  radioChannelChanged
attr title  "Radio channel, vector"
vector 44  Omrezje3.host1.wlan[0].radio  radioMode:vector  ETV
attr interpolationmode  sample-hold
attr source  radioModeChanged
attr title  "Radio mode, vector"
vector 47  Omrezje3.host1.wlan[0].radio  radioChannel:vector  ETV
attr interpolationmode  sample-hold
attr source  radioChannelChanged
attr title  "Radio channel, vector"
vector 64  Omrezje3.host2.wlan[0].radio  radioMode:vector  ETV
attr interpolationmode  sample-hold
attr source  radioModeChanged
attr title  "Radio mode, vector"
vector 67  Omrezje3.host2.wlan[0].radio  radioChannel:vector  ETV
attr interpolationmode  sample-hold
attr source  radioChannelChanged
attr title  "Radio channel, vector"
vector 5  Omrezje3.accessPoint.wlan[0].radio  receptionState:vector  ETV
attr interpolationmode  sample-hold
attr source  receptionStateChanged
attr title  "Radio reception state, vector"
vector 25  Omrezje3.host0.wlan[0].radio  receptionState:vector  ETV
attr interpolationmode  sample-hold
attr source  receptionStateChanged
attr title  "Radio reception state, vector"
vector 45  Omrezje3.host1.wlan[0].radio  receptionState:vector  ETV
attr interpolationmode  sample-hold
attr source  receptionStateChanged
attr title  "Radio reception state, vector"
vector 65  Omrezje3.host2.wlan[0].radio  receptionState:vector  ETV
attr interpolationmode  sample-hold
attr source  receptionStateChanged
attr title  "Radio reception state, vector"
4	3785 18 0 0 0 0 2 0 2 2 4
5	3803 9 0 0 0 0 1 1 1 1 1
7	3812 9 0 0 0 0 1 0 0 0 0
8	3821 36 0 0 0 0 4 0 0 0 0
24	3857 20 0 0 0 0 2 0 2 2 4
25	3877 10 0 0 0 0 1 1 1 1 1
27	3887 10 0 0 0 0 1 0 0 0 0
28	3897 40 0 0 0 0 4 0 0 0 0
44	3937 20 0 0 0 0 2 0 2 2 4
45	3957 10 0 0 0 0 1 1 1 1 1
47	3967 10 0 0 0 0 1 0 0 0 0
48	3977 40 0 0 0 0 4 0 0 0 0
64	4017 20 0 0 0 0 2 0 2 2 4
65	4037 10 0 0 0 0 1 1 1 1 1
67	4047 10 0 0 0 0 1 0 0 0 0
68	4057 40 0 0 0 0 4 0 0 0 0
